%nprocshared=4
%mem=7GB
%chk=Phenyl-Iodide0.chk
#p SP B3LYP/gen pseudo=read nosym geom=connectivity  

Single Point Calculation

0 1
C                 -1.75158050   -1.84749940    0.00119900
C                 -0.35642050   -1.84749940    0.00119900
C                  0.34111750   -0.63974840    0.00119900
C                 -0.35653650    0.56876060    0.00000000
C                 -1.75136150    0.56868260   -0.00047900
C                 -2.44896250   -0.63952340    0.00051700
H                 -2.30133950   -2.79981640    0.00164900
H                  0.19308750   -2.80001240    0.00251400
H                  0.19366350    1.52090360   -0.00005900
H                 -2.30148350    1.52096360   -0.00143200
H                 -3.54856650   -0.63934040    0.00033700
I                  2.44111715   -0.63959563    0.00240972

1 2 1.5 6 1.5 7 1.0
2 3 1.5 8 1.0
3 4 1.5 12 1.0
4 5 1.5 9 1.0
5 6 1.5 10 1.0
6 11 1.0
7
8
9
10
11
12

C H 0
6-31g(d)
****
I 0
lanl2dz
****

I 0
lanl2dz

